
OS:Version,
  {3f857100-1a53-4838-bf1d-d83d606e818c}, !- Handle
  2.8.1;                                  !- Version Identifier

OS:Timestep,
  {b0fa043b-3e91-4705-b798-a26bbea47620}, !- Handle
  6;                                      !- Number of Timesteps per Hour

OS:Connection,
  {b742b2ef-79b6-4b4e-bc85-5c20c1c8300f}, !- Handle
  {15de7a4c-1724-4ba3-a1e6-a66b0ba90514}, !- Name
  ,                                       !- Source Object
  11,                                     !- Outlet Port
  ,                                       !- Target Object
  2;                                      !- Inlet Port

OS:Space,
  {39655c19-15b3-4081-92c2-4613ae84d8e6}, !- Handle
  Zone3 Bulk Storage,                     !- Name
  {a6aa64ea-d7e8-4be2-93e7-411cbc4acca9}, !- Space Type Name
  ,                                       !- Default Construction Set Name
  ,                                       !- Default Schedule Set Name
  0,                                      !- Direction of Relative North {deg}
  0,                                      !- X Origin {m}
  0,                                      !- Y Origin {m}
  0,                                      !- Z Origin {m}
  {db75d8b1-6332-4998-b7c2-ad46d4bbd08b}, !- Building Story Name
  {a63b3219-1e40-4a75-95cb-4189563e5422}, !- Thermal Zone Name
  Yes;                                    !- Part of Total Floor Area

OS:Surface,
  {516ff702-eb03-4a25-9228-e1ad9dc5895c}, !- Handle
  Bulk Storage Roof,                      !- Name
  RoofCeiling,                            !- Surface Type
  ,                                       !- Construction Name
  {39655c19-15b3-4081-92c2-4613ae84d8e6}, !- Space Name
  Outdoors,                               !- Outside Boundary Condition
  ,                                       !- Outside Boundary Condition Object
  SunExposed,                             !- Sun Exposure
  WindExposed,                            !- Wind Exposure
  ,                                       !- View Factor to Ground
  ,                                       !- Number of Vertices
  45.7177703814647, 30.4785135876431, 8.53398380454007, !- X,Y,Z Vertex 1 {m}
  45.7177703814647, 100.579094839222, 8.53398380454007, !- X,Y,Z Vertex 2 {m}
  0, 100.579094839222, 8.53398380454007,  !- X,Y,Z Vertex 3 {m}
  0, 30.4785135876431, 8.53398380454007;  !- X,Y,Z Vertex 4 {m}

OS:WindowProperty:FrameAndDivider,
  {6bce9be8-2ab5-46ae-a571-5c172afed1ee}, !- Handle
  Skylight_Frame,                         !- Name
  0.7129,                                 !- Frame Width {m}
  ,                                       !- Frame Outside Projection {m}
  ,                                       !- Frame Inside Projection {m}
  283.91,                                 !- Frame Conductance {W/m2-K}
  1,                                      !- Ratio of Frame-Edge Glass Conductance to Center-Of-Glass Conductance
  0.7,                                    !- Frame Solar Absorptance
  0.7,                                    !- Frame Visible Absorptance
  0.9,                                    !- Frame Thermal Hemispherical Emissivity
  ,                                       !- Divider Type
  ,                                       !- Divider Width {m}
  ,                                       !- Number of Horizontal Dividers
  ,                                       !- Number of Vertical Dividers
  ,                                       !- Divider Outside Projection {m}
  ,                                       !- Divider Inside Projection {m}
  ,                                       !- Divider Conductance {W/m2-K}
  1,                                      !- Ratio of Divider-Edge Glass Conductance to Center-Of-Glass Conductance
  ,                                       !- Divider Solar Absorptance
  ,                                       !- Divider Visible Absorptance
  0.9;                                    !- Divider Thermal Hemispherical Emissivity

OS:Surface,
  {e7c4e556-9445-43b4-bfcc-f9fc21f24f21}, !- Handle
  Fine Storage Left Wall,                 !- Name
  Wall,                                   !- Surface Type
  ,                                       !- Construction Name
  {cdd6a95f-f907-4c0e-817d-962525d358d0}, !- Space Name
  Outdoors,                               !- Outside Boundary Condition
  ,                                       !- Outside Boundary Condition Object
  SunExposed,                             !- Sun Exposure
  WindExposed,                            !- Wind Exposure
  ,                                       !- View Factor to Ground
  ,                                       !- Number of Vertices
  0, 30.4785135876431, 8.53398380454007,  !- X,Y,Z Vertex 1 {m}
  0, 30.4785135876431, 0,                 !- X,Y,Z Vertex 2 {m}
  0, 9.14355407629293, 0,                 !- X,Y,Z Vertex 3 {m}
  0, 9.14355407629293, 8.53398380454007;  !- X,Y,Z Vertex 4 {m}

OS:Connection,
  {dc04fefb-3f18-45be-8f68-9d2cd3eb4a21}, !- Handle
  {e66b1d83-cc39-44fb-8764-30d98d02c75a}, !- Name
  ,                                       !- Source Object
  11,                                     !- Outlet Port
  ,                                       !- Target Object
  2;                                      !- Inlet Port

OS:Space,
  {cdd6a95f-f907-4c0e-817d-962525d358d0}, !- Handle
  Zone2 Fine Storage,                     !- Name
  {f6907e5f-7752-47ad-bfcd-c6fb8b1f86ab}, !- Space Type Name
  ,                                       !- Default Construction Set Name
  ,                                       !- Default Schedule Set Name
  0,                                      !- Direction of Relative North {deg}
  0,                                      !- X Origin {m}
  0,                                      !- Y Origin {m}
  0,                                      !- Z Origin {m}
  {db75d8b1-6332-4998-b7c2-ad46d4bbd08b}, !- Building Story Name
  {91e16d5f-64de-48f8-8008-8efc2aa727aa}, !- Thermal Zone Name
  Yes;                                    !- Part of Total Floor Area

OS:Surface,
  {b8444fba-ff4e-4e81-b369-e9f3efc4a2d6}, !- Handle
  Office Roof,                            !- Name
  RoofCeiling,                            !- Surface Type
  ,                                       !- Construction Name
  {12c3d4a0-20ec-4e1f-8040-e70cdfba4a69}, !- Space Name
  Surface,                                !- Outside Boundary Condition
  {a273ffc4-632f-4b89-9d6d-f94185f45049}, !- Outside Boundary Condition Object
  NoSun,                                  !- Sun Exposure
  NoWind,                                 !- Wind Exposure
  ,                                       !- View Factor to Ground
  ,                                       !- Number of Vertices
  25.9067365494966, 0, 4.26699190227003,  !- X,Y,Z Vertex 1 {m}
  25.9067365494966, 9.14355407629293, 4.26699190227003, !- X,Y,Z Vertex 2 {m}
  0, 9.14355407629293, 4.26699190227003,  !- X,Y,Z Vertex 3 {m}
  0, 0, 4.26699190227003;                 !- X,Y,Z Vertex 4 {m}

OS:Connection,
  {3386e9fe-e830-491d-a1bc-dbb0ba0af916}, !- Handle
  {20ab44d7-01dc-49cd-b623-cd8f0a86b916}, !- Name
  ,                                       !- Source Object
  11,                                     !- Outlet Port
  ,                                       !- Target Object
  2;                                      !- Inlet Port

OS:Space,
  {12c3d4a0-20ec-4e1f-8040-e70cdfba4a69}, !- Handle
  Zone1 Office,                           !- Name
  {b0aef65a-6c0f-43e9-b00a-681a7595a4b8}, !- Space Type Name
  ,                                       !- Default Construction Set Name
  ,                                       !- Default Schedule Set Name
  0,                                      !- Direction of Relative North {deg}
  0,                                      !- X Origin {m}
  0,                                      !- Y Origin {m}
  0,                                      !- Z Origin {m}
  {db75d8b1-6332-4998-b7c2-ad46d4bbd08b}, !- Building Story Name
  {afdc2e61-cb76-4579-b0f9-bf63efeb78e2}, !- Thermal Zone Name
  Yes;                                    !- Part of Total Floor Area

OS:Surface,
  {a273ffc4-632f-4b89-9d6d-f94185f45049}, !- Handle
  Office Roof Reversed,                   !- Name
  Floor,                                  !- Surface Type
  ,                                       !- Construction Name
  {cdd6a95f-f907-4c0e-817d-962525d358d0}, !- Space Name
  Surface,                                !- Outside Boundary Condition
  {b8444fba-ff4e-4e81-b369-e9f3efc4a2d6}, !- Outside Boundary Condition Object
  NoSun,                                  !- Sun Exposure
  NoWind,                                 !- Wind Exposure
  ,                                       !- View Factor to Ground
  ,                                       !- Number of Vertices
  0, 0, 4.26699190227003,                 !- X,Y,Z Vertex 1 {m}
  0, 9.14355407629293, 4.26699190227003,  !- X,Y,Z Vertex 2 {m}
  25.9067365494966, 9.14355407629293, 4.26699190227003, !- X,Y,Z Vertex 3 {m}
  25.9067365494966, 0, 4.26699190227003;  !- X,Y,Z Vertex 4 {m}

OS:Surface,
  {b8b06532-b20c-4b27-b353-fb685ea15ba8}, !- Handle
  Bulk Storage Rear Wall,                 !- Name
  Wall,                                   !- Surface Type
  ,                                       !- Construction Name
  {39655c19-15b3-4081-92c2-4613ae84d8e6}, !- Space Name
  Outdoors,                               !- Outside Boundary Condition
  ,                                       !- Outside Boundary Condition Object
  SunExposed,                             !- Sun Exposure
  WindExposed,                            !- Wind Exposure
  ,                                       !- View Factor to Ground
  ,                                       !- Number of Vertices
  45.7177703814647, 100.579094839222, 8.53398380454007, !- X,Y,Z Vertex 1 {m}
  45.7177703814647, 100.579094839222, 0,  !- X,Y,Z Vertex 2 {m}
  0, 100.579094839222, 0,                 !- X,Y,Z Vertex 3 {m}
  0, 100.579094839222, 8.53398380454007;  !- X,Y,Z Vertex 4 {m}

OS:Surface,
  {e86312f3-df9c-4a72-8bf5-276fd9968053}, !- Handle
  Bulk Storage Floor,                     !- Name
  Floor,                                  !- Surface Type
  ,                                       !- Construction Name
  {39655c19-15b3-4081-92c2-4613ae84d8e6}, !- Space Name
  Ground,                                 !- Outside Boundary Condition
  ,                                       !- Outside Boundary Condition Object
  NoSun,                                  !- Sun Exposure
  NoWind,                                 !- Wind Exposure
  ,                                       !- View Factor to Ground
  ,                                       !- Number of Vertices
  45.7177703814647, 100.579094839222, 0,  !- X,Y,Z Vertex 1 {m}
  45.7177703814647, 30.4785135876431, 0,  !- X,Y,Z Vertex 2 {m}
  0, 30.4785135876431, 0,                 !- X,Y,Z Vertex 3 {m}
  0, 100.579094839222, 0;                 !- X,Y,Z Vertex 4 {m}

OS:Surface,
  {2eb36d53-8956-4573-9d42-f3de2486a693}, !- Handle
  Bulk Storage Left Wall,                 !- Name
  Wall,                                   !- Surface Type
  ,                                       !- Construction Name
  {39655c19-15b3-4081-92c2-4613ae84d8e6}, !- Space Name
  Outdoors,                               !- Outside Boundary Condition
  ,                                       !- Outside Boundary Condition Object
  SunExposed,                             !- Sun Exposure
  WindExposed,                            !- Wind Exposure
  ,                                       !- View Factor to Ground
  ,                                       !- Number of Vertices
  0, 100.579094839222, 8.53398380454007,  !- X,Y,Z Vertex 1 {m}
  0, 100.579094839222, 0,                 !- X,Y,Z Vertex 2 {m}
  0, 30.4785135876431, 0,                 !- X,Y,Z Vertex 3 {m}
  0, 30.4785135876431, 8.53398380454007;  !- X,Y,Z Vertex 4 {m}

OS:Surface,
  {eb38baf8-4819-4f38-99d7-de17082804a6}, !- Handle
  Fine Storage Floor,                     !- Name
  Floor,                                  !- Surface Type
  ,                                       !- Construction Name
  {cdd6a95f-f907-4c0e-817d-962525d358d0}, !- Space Name
  Ground,                                 !- Outside Boundary Condition
  ,                                       !- Outside Boundary Condition Object
  NoSun,                                  !- Sun Exposure
  NoWind,                                 !- Wind Exposure
  ,                                       !- View Factor to Ground
  ,                                       !- Number of Vertices
  45.7177703814647, 30.4785135876431, 0,  !- X,Y,Z Vertex 1 {m}
  45.7177703814647, 0, 0,                 !- X,Y,Z Vertex 2 {m}
  25.9067365494966, 0, 0,                 !- X,Y,Z Vertex 3 {m}
  25.9067365494966, 9.14355407629293, 0,  !- X,Y,Z Vertex 4 {m}
  0, 9.14355407629293, 0,                 !- X,Y,Z Vertex 5 {m}
  0, 30.4785135876431, 0;                 !- X,Y,Z Vertex 6 {m}

OS:Surface,
  {a0ba0fa9-aa51-4fbe-bdcc-bf0a22e397dd}, !- Handle
  Fine Storage Right Wall,                !- Name
  Wall,                                   !- Surface Type
  ,                                       !- Construction Name
  {cdd6a95f-f907-4c0e-817d-962525d358d0}, !- Space Name
  Outdoors,                               !- Outside Boundary Condition
  ,                                       !- Outside Boundary Condition Object
  SunExposed,                             !- Sun Exposure
  WindExposed,                            !- Wind Exposure
  ,                                       !- View Factor to Ground
  ,                                       !- Number of Vertices
  45.7177703814647, 0, 8.53398380454007,  !- X,Y,Z Vertex 1 {m}
  45.7177703814647, 0, 0,                 !- X,Y,Z Vertex 2 {m}
  45.7177703814647, 30.4785135876431, 0,  !- X,Y,Z Vertex 3 {m}
  45.7177703814647, 30.4785135876431, 8.53398380454007; !- X,Y,Z Vertex 4 {m}

OS:Surface,
  {dcc10c35-212a-4ba7-8909-e38fa0c8d3e8}, !- Handle
  Fine Storage Roof,                      !- Name
  RoofCeiling,                            !- Surface Type
  ,                                       !- Construction Name
  {cdd6a95f-f907-4c0e-817d-962525d358d0}, !- Space Name
  Outdoors,                               !- Outside Boundary Condition
  ,                                       !- Outside Boundary Condition Object
  SunExposed,                             !- Sun Exposure
  WindExposed,                            !- Wind Exposure
  ,                                       !- View Factor to Ground
  ,                                       !- Number of Vertices
  45.7177703814647, 0, 8.53398380454007,  !- X,Y,Z Vertex 1 {m}
  45.7177703814647, 30.4785135876431, 8.53398380454007, !- X,Y,Z Vertex 2 {m}
  0, 30.4785135876431, 8.53398380454007,  !- X,Y,Z Vertex 3 {m}
  0, 0, 8.53398380454007;                 !- X,Y,Z Vertex 4 {m}

OS:Surface,
  {af7ffab5-cb7d-4793-a68a-918ca67f7479}, !- Handle
  Office Left Wall,                       !- Name
  Wall,                                   !- Surface Type
  ,                                       !- Construction Name
  {12c3d4a0-20ec-4e1f-8040-e70cdfba4a69}, !- Space Name
  Outdoors,                               !- Outside Boundary Condition
  ,                                       !- Outside Boundary Condition Object
  SunExposed,                             !- Sun Exposure
  WindExposed,                            !- Wind Exposure
  ,                                       !- View Factor to Ground
  ,                                       !- Number of Vertices
  0, 9.14355407629293, 4.26699190227003,  !- X,Y,Z Vertex 1 {m}
  0, 9.14355407629293, 0,                 !- X,Y,Z Vertex 2 {m}
  0, 0, 0,                                !- X,Y,Z Vertex 3 {m}
  0, 0, 4.26699190227003;                 !- X,Y,Z Vertex 4 {m}

OS:Surface,
  {a966bae9-9301-4492-ae85-a3416cb9da09}, !- Handle
  Office Floor,                           !- Name
  Floor,                                  !- Surface Type
  ,                                       !- Construction Name
  {12c3d4a0-20ec-4e1f-8040-e70cdfba4a69}, !- Space Name
  Ground,                                 !- Outside Boundary Condition
  ,                                       !- Outside Boundary Condition Object
  NoSun,                                  !- Sun Exposure
  NoWind,                                 !- Wind Exposure
  ,                                       !- View Factor to Ground
  ,                                       !- Number of Vertices
  25.9067365494966, 9.14355407629293, 0,  !- X,Y,Z Vertex 1 {m}
  25.9067365494966, 0, 0,                 !- X,Y,Z Vertex 2 {m}
  0, 0, 0,                                !- X,Y,Z Vertex 3 {m}
  0, 9.14355407629293, 0;                 !- X,Y,Z Vertex 4 {m}

OS:Surface,
  {7f4aebb1-9044-44cb-91ee-e1a559b436a0}, !- Handle
  Office Right Wall,                      !- Name
  Wall,                                   !- Surface Type
  ,                                       !- Construction Name
  {12c3d4a0-20ec-4e1f-8040-e70cdfba4a69}, !- Space Name
  Surface,                                !- Outside Boundary Condition
  {12dbc2fb-3517-42f9-9f00-f6147aaade5b}, !- Outside Boundary Condition Object
  NoSun,                                  !- Sun Exposure
  NoWind,                                 !- Wind Exposure
  ,                                       !- View Factor to Ground
  ,                                       !- Number of Vertices
  25.9067365494966, 0, 4.26699190227003,  !- X,Y,Z Vertex 1 {m}
  25.9067365494966, 0, 0,                 !- X,Y,Z Vertex 2 {m}
  25.9067365494966, 9.14355407629293, 0,  !- X,Y,Z Vertex 3 {m}
  25.9067365494966, 9.14355407629293, 4.26699190227003; !- X,Y,Z Vertex 4 {m}

OS:Surface,
  {12dbc2fb-3517-42f9-9f00-f6147aaade5b}, !- Handle
  Office Right Wall Reversed,             !- Name
  Wall,                                   !- Surface Type
  ,                                       !- Construction Name
  {cdd6a95f-f907-4c0e-817d-962525d358d0}, !- Space Name
  Surface,                                !- Outside Boundary Condition
  {7f4aebb1-9044-44cb-91ee-e1a559b436a0}, !- Outside Boundary Condition Object
  NoSun,                                  !- Sun Exposure
  NoWind,                                 !- Wind Exposure
  ,                                       !- View Factor to Ground
  ,                                       !- Number of Vertices
  25.9067365494966, 9.14355407629293, 4.26699190227003, !- X,Y,Z Vertex 1 {m}
  25.9067365494966, 9.14355407629293, 0,  !- X,Y,Z Vertex 2 {m}
  25.9067365494966, 0, 0,                 !- X,Y,Z Vertex 3 {m}
  25.9067365494966, 0, 4.26699190227003;  !- X,Y,Z Vertex 4 {m}

OS:Surface,
  {a722f50f-fda4-4b2c-843f-44ea72a832c9}, !- Handle
  Office Front Wall,                      !- Name
  Wall,                                   !- Surface Type
  ,                                       !- Construction Name
  {12c3d4a0-20ec-4e1f-8040-e70cdfba4a69}, !- Space Name
  Outdoors,                               !- Outside Boundary Condition
  ,                                       !- Outside Boundary Condition Object
  SunExposed,                             !- Sun Exposure
  WindExposed,                            !- Wind Exposure
  ,                                       !- View Factor to Ground
  ,                                       !- Number of Vertices
  0, 0, 4.26699190227003,                 !- X,Y,Z Vertex 1 {m}
  0, 0, 0,                                !- X,Y,Z Vertex 2 {m}
  25.9067365494966, 0, 0,                 !- X,Y,Z Vertex 3 {m}
  25.9067365494966, 0, 4.26699190227003;  !- X,Y,Z Vertex 4 {m}

OS:Surface,
  {2ce21271-4aa0-4b4e-af87-47994c8beac1}, !- Handle
  Bulk Storage Front Wall,                !- Name
  Wall,                                   !- Surface Type
  ,                                       !- Construction Name
  {39655c19-15b3-4081-92c2-4613ae84d8e6}, !- Space Name
  Surface,                                !- Outside Boundary Condition
  {139e955e-746e-43dc-9033-026507021b5a}, !- Outside Boundary Condition Object
  NoSun,                                  !- Sun Exposure
  NoWind,                                 !- Wind Exposure
  ,                                       !- View Factor to Ground
  ,                                       !- Number of Vertices
  45.7177703814647, 30.4785135876431, 8.53398380454007, !- X,Y,Z Vertex 1 {m}
  45.7177703814647, 30.4785135876431, 0,  !- X,Y,Z Vertex 2 {m}
  0, 30.4785135876431, 0,                 !- X,Y,Z Vertex 3 {m}
  0, 30.4785135876431, 8.53398380454007;  !- X,Y,Z Vertex 4 {m}

OS:Surface,
  {139e955e-746e-43dc-9033-026507021b5a}, !- Handle
  Bulk Storage Front Wall Reversed,       !- Name
  Wall,                                   !- Surface Type
  ,                                       !- Construction Name
  {cdd6a95f-f907-4c0e-817d-962525d358d0}, !- Space Name
  Surface,                                !- Outside Boundary Condition
  {2ce21271-4aa0-4b4e-af87-47994c8beac1}, !- Outside Boundary Condition Object
  NoSun,                                  !- Sun Exposure
  NoWind,                                 !- Wind Exposure
  ,                                       !- View Factor to Ground
  ,                                       !- Number of Vertices
  0, 30.4785135876431, 8.53398380454007,  !- X,Y,Z Vertex 1 {m}
  0, 30.4785135876431, 0,                 !- X,Y,Z Vertex 2 {m}
  45.7177703814647, 30.4785135876431, 0,  !- X,Y,Z Vertex 3 {m}
  45.7177703814647, 30.4785135876431, 8.53398380454007; !- X,Y,Z Vertex 4 {m}

OS:Surface,
  {145bfd04-ce48-4581-a2a9-e8970362044f}, !- Handle
  Fine Storage Office Left Wall,          !- Name
  Wall,                                   !- Surface Type
  ,                                       !- Construction Name
  {cdd6a95f-f907-4c0e-817d-962525d358d0}, !- Space Name
  Outdoors,                               !- Outside Boundary Condition
  ,                                       !- Outside Boundary Condition Object
  SunExposed,                             !- Sun Exposure
  WindExposed,                            !- Wind Exposure
  ,                                       !- View Factor to Ground
  ,                                       !- Number of Vertices
  0, 9.14355407629293, 8.53398380454007,  !- X,Y,Z Vertex 1 {m}
  0, 9.14355407629293, 4.26699190227003,  !- X,Y,Z Vertex 2 {m}
  0, 0, 4.26699190227003,                 !- X,Y,Z Vertex 3 {m}
  0, 0, 8.53398380454007;                 !- X,Y,Z Vertex 4 {m}

OS:Surface,
  {93a00761-ab33-4e9d-bff7-fed32e66feb1}, !- Handle
  Bulk Storage Right Wall,                !- Name
  Wall,                                   !- Surface Type
  ,                                       !- Construction Name
  {39655c19-15b3-4081-92c2-4613ae84d8e6}, !- Space Name
  Outdoors,                               !- Outside Boundary Condition
  ,                                       !- Outside Boundary Condition Object
  SunExposed,                             !- Sun Exposure
  WindExposed,                            !- Wind Exposure
  ,                                       !- View Factor to Ground
  ,                                       !- Number of Vertices
  45.7177703814647, 30.4785135876431, 8.53398380454007, !- X,Y,Z Vertex 1 {m}
  45.7177703814647, 30.4785135876431, 0,  !- X,Y,Z Vertex 2 {m}
  45.7177703814647, 100.579094839222, 0,  !- X,Y,Z Vertex 3 {m}
  45.7177703814647, 100.579094839222, 8.53398380454007; !- X,Y,Z Vertex 4 {m}

OS:Surface,
  {857f9ef3-3061-45eb-b04c-b4a4b76ff6cd}, !- Handle
  Office Rear Wall,                       !- Name
  Wall,                                   !- Surface Type
  ,                                       !- Construction Name
  {12c3d4a0-20ec-4e1f-8040-e70cdfba4a69}, !- Space Name
  Surface,                                !- Outside Boundary Condition
  {4047aa22-d7b0-4e4a-a8a7-99a21122cc53}, !- Outside Boundary Condition Object
  NoSun,                                  !- Sun Exposure
  NoWind,                                 !- Wind Exposure
  ,                                       !- View Factor to Ground
  ,                                       !- Number of Vertices
  25.9067365494966, 9.14355407629293, 4.26699190227003, !- X,Y,Z Vertex 1 {m}
  25.9067365494966, 9.14355407629293, 0,  !- X,Y,Z Vertex 2 {m}
  0, 9.14355407629293, 0,                 !- X,Y,Z Vertex 3 {m}
  0, 9.14355407629293, 4.26699190227003;  !- X,Y,Z Vertex 4 {m}

OS:Surface,
  {4047aa22-d7b0-4e4a-a8a7-99a21122cc53}, !- Handle
  Office Rear Wall Reversed,              !- Name
  Wall,                                   !- Surface Type
  ,                                       !- Construction Name
  {cdd6a95f-f907-4c0e-817d-962525d358d0}, !- Space Name
  Surface,                                !- Outside Boundary Condition
  {857f9ef3-3061-45eb-b04c-b4a4b76ff6cd}, !- Outside Boundary Condition Object
  NoSun,                                  !- Sun Exposure
  NoWind,                                 !- Wind Exposure
  ,                                       !- View Factor to Ground
  ,                                       !- Number of Vertices
  0, 9.14355407629293, 4.26699190227003,  !- X,Y,Z Vertex 1 {m}
  0, 9.14355407629293, 0,                 !- X,Y,Z Vertex 2 {m}
  25.9067365494966, 9.14355407629293, 0,  !- X,Y,Z Vertex 3 {m}
  25.9067365494966, 9.14355407629293, 4.26699190227003; !- X,Y,Z Vertex 4 {m}

OS:Surface,
  {a50eff28-8688-422b-9443-0a4fe183df9f}, !- Handle
  Fine Storage Front Wall,                !- Name
  Wall,                                   !- Surface Type
  ,                                       !- Construction Name
  {cdd6a95f-f907-4c0e-817d-962525d358d0}, !- Space Name
  Outdoors,                               !- Outside Boundary Condition
  ,                                       !- Outside Boundary Condition Object
  SunExposed,                             !- Sun Exposure
  WindExposed,                            !- Wind Exposure
  ,                                       !- View Factor to Ground
  ,                                       !- Number of Vertices
  25.9067365494966, 0, 8.53398380454007,  !- X,Y,Z Vertex 1 {m}
  25.9067365494966, 0, 0,                 !- X,Y,Z Vertex 2 {m}
  45.7177703814647, 0, 0,                 !- X,Y,Z Vertex 3 {m}
  45.7177703814647, 0, 8.53398380454007;  !- X,Y,Z Vertex 4 {m}

OS:Surface,
  {5b1ce779-a299-4910-83a2-6fb6d1cee24f}, !- Handle
  Fine Storage Office Front Wall,         !- Name
  Wall,                                   !- Surface Type
  ,                                       !- Construction Name
  {cdd6a95f-f907-4c0e-817d-962525d358d0}, !- Space Name
  Outdoors,                               !- Outside Boundary Condition
  ,                                       !- Outside Boundary Condition Object
  SunExposed,                             !- Sun Exposure
  WindExposed,                            !- Wind Exposure
  ,                                       !- View Factor to Ground
  ,                                       !- Number of Vertices
  0, 0, 8.53398380454007,                 !- X,Y,Z Vertex 1 {m}
  0, 0, 4.26699190227003,                 !- X,Y,Z Vertex 2 {m}
  25.9067365494966, 0, 4.26699190227003,  !- X,Y,Z Vertex 3 {m}
  25.9067365494966, 0, 8.53398380454007;  !- X,Y,Z Vertex 4 {m}

OS:ClimateZones,
  {376b058c-4e5c-42e7-91c5-a7e3e46c14bb}, !- Handle
  ,                                       !- Active Institution
  ,                                       !- Active Year
  ASHRAE,                                 !- Climate Zone Institution Name 1
  ANSI/ASHRAE Standard 169,               !- Climate Zone Document Name 1
  2006,                                   !- Climate Zone Document Year 1
  ,                                       !- Climate Zone Value 1
  CEC,                                    !- Climate Zone Institution Name 2
  California Climate Zone Descriptions,   !- Climate Zone Document Name 2
  1995,                                   !- Climate Zone Document Year 2
  ;                                       !- Climate Zone Value 2

OS:LifeCycleCost:Parameters,
  {9b956084-335f-4719-be60-6c3e1f278aa5}, !- Handle
  FEMP,                                   !- Analysis Type
  ,                                       !- Discounting Convention
  ,                                       !- Inflation Approach
  ,                                       !- Real Discount Rate
  ,                                       !- Nominal Discount Rate
  ,                                       !- Inflation
  ,                                       !- Base Date Month
  ,                                       !- Base Date Year
  ,                                       !- Service Date Month
  ,                                       !- Service Date Year
  ,                                       !- Length of Study Period in Years
  ,                                       !- Tax Rate
  ,                                       !- Depreciation Method
  Yes;                                    !- Use NIST Fuel Escalation Rates

OS:YearDescription,
  {429de7de-6704-419c-b62c-ed3f08bd405f}, !- Handle
  ,                                       !- Calendar Year
  Sunday;                                 !- Day of Week for Start Day

OS:Building,
  {c23ded4b-6f18-4e30-b6db-cc00e1198751}, !- Handle
  Warehouse-CAN_QC_Kuujjuaq.AP.719060_CWEC2016.epw, !- Name
  ,                                       !- Building Sector Type
  ,                                       !- North Axis {deg}
  ,                                       !- Nominal Floor to Floor Height {m}
  ,                                       !- Space Type Name
  {482922c3-3efd-414b-bb2b-70d7bcf42179}, !- Default Construction Set Name
  ,                                       !- Default Schedule Set Name
  1,                                      !- Standards Number of Stories
  1,                                      !- Standards Number of Above Ground Stories